*SPEF "IEEE 1481-1998"
*DESIGN "IIR_filter"
*DATE "Wed Nov 10 18:00:56 2021"
*VENDOR "Cadence Design Systems, Inc."
*PROGRAM "Innovus"
*VERSION "17.11-s080_1"
*DESIGN_FLOW "COUPLING C" "PIN_CAP NONE" "NAME_SCOPE LOCAL"
*DIVIDER /
*DELIMITER :
*BUS_DELIMITER []
*T_UNIT 1 NS
*C_UNIT 1 PF
*R_UNIT 1 OHM
*L_UNIT 1 HENRY

// MMMC spef file for corner 'my_rc'

*NAME_MAP

*1 CLK
*2 RST_n
*3 VIN
*4 VOUT
*5 a0[7]
*6 a0[6]
*7 a0[5]
*8 a0[4]
*9 a0[3]
*10 a0[2]
*11 a0[1]
*12 a0[0]
*13 a1[7]
*14 a1[6]
*15 a1[5]
*16 a1[4]
*17 a1[3]
*18 a1[2]
*19 a1[1]
*20 a1[0]
*21 a2[7]
*22 a2[6]
*23 a2[5]
*24 a2[4]
*25 a2[3]
*26 a2[2]
*27 a2[1]
*28 a2[0]
*29 b1[7]
*30 b1[6]
*31 b1[5]
*32 b1[4]
*33 b1[3]
*34 b1[2]
*35 b1[1]
*36 b1[0]
*37 b2[7]
*38 b2[6]
*39 b2[5]
*40 b2[4]
*41 b2[3]
*42 b2[2]
*43 b2[1]
*44 b2[0]
*45 DIN[7]
*46 DIN[6]
*47 DIN[5]
*48 DIN[4]
*49 DIN[3]
*50 DIN[2]
*51 DIN[1]
*52 DIN[0]
*53 DOUT[7]
*54 DOUT[6]
*55 DOUT[5]
*56 DOUT[4]
*57 DOUT[3]
*58 DOUT[2]
*59 DOUT[1]
*60 DOUT[0]
*61 FE_RN_5_0
*62 FE_RN_4_0
*63 FE_OFN6_mult_102_n956
*64 FE_OFN5_mult_92_n236
*65 FE_OFN4_mult_95_n236
*66 FE_OFN3_N15
*67 FE_OFN2_mult_102_n969
*68 FE_OFN1_mult_87_n724
*69 FE_OFN0_mult_87_n744
*70 FE_RN_3_0
*71 FE_RN_2_0
*72 FE_RN_1_0
*73 FE_RN_0_0
*74 FE_DBTN7_RST_n
*75 FE_DBTN6_EN
*76 FE_DBTN5_VIN_S
*77 FE_DBTN4_OUTPUT
*78 FE_DBTN3_T1_0
*79 FE_DBTN2_Z1_OUT_0
*80 FE_DBTN1_Z1_OUT_1
*81 FE_DBTN0_Z2_OUT_0
*82 EN
*83 VIN_S
*84 V_OUT
*85 OUTPUT
*86 VOUT_S
*87 N0
*88 N2
*89 N3
*90 N4
*91 N6
*92 N7
*93 N8
*94 N9
*95 N10
*96 N11
*97 N12
*98 N13
*99 N14
*100 N15
*101 n3
*102 n4
*103 n5
*104 n6
*105 T2_7_
*106 T2_6_
*107 T2_5_
*108 T2_4_
*109 T2_3_
*110 T2_2_
*111 T2_1_
*112 T2_0_
*113 n14
*114 n126
*115 T0_7_
*116 T0_6_
*117 T0_5_
*118 T0_4_
*119 T0_3_
*120 T0_2_
*121 T0_1_
*122 T0_0_
*123 M4_9_
*124 M4_8_
*125 M4_7_
*126 M4_13_
*127 M4_12_
*128 M4_11_
*129 M4_10_
*130 M3_9_
*131 M3_8_
*132 M3_7_
*133 M3_13_
*134 M3_12_
*135 M3_11_
*136 M3_10_
*137 M2_9_
*138 M2_8_
*139 M2_7_
*140 M2_13_
*141 M2_12_
*142 M2_11_
*143 M2_10_
*144 M1_9_
*145 M1_8_
*146 M1_7_
*147 M1_13_
*148 M1_12_
*149 M1_11_
*150 M1_10_
*151 n264
*152 n265
*153 n266
*154 n267
*155 n268
*156 n269
*157 n271
*158 n272
*159 n273
*160 n274
*161 n275
*162 n276
*163 n277
*164 n278
*165 n279
*166 n280
*167 n281
*168 n282
*169 n283
*170 n284
*171 n285
*172 n286
*173 n287
*174 n288
*175 n289
*176 n290
*177 n291
*178 n292
*179 n293
*180 n294
*181 n295
*182 n296
*183 n298
*184 n299
*185 n300
*186 n301
*187 n302
*188 n303
*189 n304
*190 n305
*191 n306
*192 n307
*193 n308
*194 n309
*195 n310
*196 REG_IN_DELAY_n54
*197 REG_IN_DELAY_n52
*198 REG_IN_DELAY_n11
*199 REG_IN_DELAY_n27
*200 REG_IN_DELAY_n26
*201 REG_IN_DELAY_n25
*202 REG_IN_DELAY_n24
*203 REG_IN_DELAY_n23
*204 REG_IN_DELAY_n22
*205 REG_IN_DELAY_n21
*206 REG_IN_DELAY_n20
*207 REG_IN_DELAY_n19
*208 REG_IN_DELAY_n18
*209 REG_IN_DELAY_n17
*210 REG_IN_DELAY_n16
*211 REG_IN_DELAY_n15
*212 REG_IN_DELAY_n14
*213 REG_IN_DELAY_n13
*214 REG_IN_DELAY_n12
*215 REG_DATA_IN_n56
*216 REG_DATA_IN_n55
*217 REG_DATA_IN_n54
*218 REG_DATA_IN_n53
*219 REG_DATA_IN_n52
*220 REG_DATA_IN_n51
*221 REG_DATA_IN_n50
*222 REG_DATA_IN_n49
*223 REG_DATA_IN_n11
*224 REG_DATA_IN_n10
*225 REG_DATA_IN_n27
*226 REG_DATA_IN_n26
*227 REG_DATA_IN_n25
*228 REG_DATA_IN_n24
*229 REG_DATA_IN_n23
*230 REG_DATA_IN_n22
*231 REG_DATA_IN_n21
*232 REG_DATA_IN_n20
*233 REG_DATA_IN_n19
*234 REG_DATA_IN_n18
*235 REG_DATA_IN_n17
*236 REG_DATA_IN_n16
*237 REG_DATA_IN_n15
*238 REG_DATA_IN_n14
*239 REG_DATA_IN_n13
*240 REG_DATA_IN_n12
*241 REG_VIN_n3
*242 REG_VIN_n4
*243 REG_COEFF_A0_n56
*244 REG_COEFF_A0_n55
*245 REG_COEFF_A0_n54
*246 REG_COEFF_A0_n53
*247 REG_COEFF_A0_n52
*248 REG_COEFF_A0_n51
*249 REG_COEFF_A0_n50
*250 REG_COEFF_A0_n49
*251 REG_COEFF_A0_n11
*252 REG_COEFF_A0_n10
*253 REG_COEFF_A0_n27
*254 REG_COEFF_A0_n26
*255 REG_COEFF_A0_n25
*256 REG_COEFF_A0_n24
*257 REG_COEFF_A0_n23
*258 REG_COEFF_A0_n22
*259 REG_COEFF_A0_n21
*260 REG_COEFF_A0_n20
*261 REG_COEFF_A0_n19
*262 REG_COEFF_A0_n18
*263 REG_COEFF_A0_n17
*264 REG_COEFF_A0_n16
*265 REG_COEFF_A0_n15
*266 REG_COEFF_A0_n14
*267 REG_COEFF_A0_n13
*268 REG_COEFF_A0_n12
*269 REG_COEFF_A1_n74
*270 REG_COEFF_A1_n73
*271 REG_COEFF_A1_n72
*272 REG_COEFF_A1_n71
*273 REG_COEFF_A1_n70
*274 REG_COEFF_A1_n69
*275 REG_COEFF_A1_n68
*276 REG_COEFF_A1_n67
*277 REG_COEFF_A1_n11
*278 REG_COEFF_A1_n10
*279 REG_COEFF_A1_n54
*280 REG_COEFF_A1_n53
*281 REG_COEFF_A1_n52
*282 REG_COEFF_A1_n51
*283 REG_COEFF_A1_n50
*284 REG_COEFF_A1_n49
*285 REG_COEFF_A1_n48
*286 REG_COEFF_A1_n47
*287 REG_COEFF_A1_n46
*288 REG_COEFF_A1_n45
*289 REG_COEFF_A1_n44
*290 REG_COEFF_A1_n43
*291 REG_COEFF_A1_n42
*292 REG_COEFF_A1_n41
*293 REG_COEFF_A1_n40
*294 REG_COEFF_A1_n39
*295 REG_COEFF_A2_n76
*296 REG_COEFF_A2_n75
*297 REG_COEFF_A2_n74
*298 REG_COEFF_A2_n73
*299 REG_COEFF_A2_n72
*300 REG_COEFF_A2_n71
*301 REG_COEFF_A2_n70
*302 REG_COEFF_A2_n69
*303 REG_COEFF_A2_n11
*304 REG_COEFF_A2_n10
*305 REG_COEFF_A2_n54
*306 REG_COEFF_A2_n53
*307 REG_COEFF_A2_n52
*308 REG_COEFF_A2_n51
*309 REG_COEFF_A2_n50
*310 REG_COEFF_A2_n49
*311 REG_COEFF_A2_n48
*312 REG_COEFF_A2_n47
*313 REG_COEFF_A2_n46
*314 REG_COEFF_A2_n45
*315 REG_COEFF_A2_n44
*316 REG_COEFF_A2_n43
*317 REG_COEFF_A2_n42
*318 REG_COEFF_A2_n41
*319 REG_COEFF_A2_n40
*320 REG_COEFF_A2_n39
*321 REG_COEFF_B1_n72
*322 REG_COEFF_B1_n71
*323 REG_COEFF_B1_n70
*324 REG_COEFF_B1_n69
*325 REG_COEFF_B1_n68
*326 REG_COEFF_B1_n67
*327 REG_COEFF_B1_n65
*328 REG_COEFF_B1_n64
*329 REG_COEFF_B1_n63
*330 REG_COEFF_B1_n62
*331 REG_COEFF_B1_n15
*332 REG_COEFF_B1_n14
*333 REG_COEFF_B1_n27
*334 REG_COEFF_B1_n26
*335 REG_COEFF_B1_n25
*336 REG_COEFF_B1_n24
*337 REG_COEFF_B1_n23
*338 REG_COEFF_B1_n22
*339 REG_COEFF_B1_n21
*340 REG_COEFF_B1_n19
*341 REG_COEFF_B1_n18
*342 REG_COEFF_B1_n17
*343 REG_COEFF_B1_n16
*344 REG_COEFF_B1_n37
*345 REG_COEFF_B1_n34
*346 REG_COEFF_B1_n1
*347 REG_COEFF_B2_n71
*348 REG_COEFF_B2_n70
*349 REG_COEFF_B2_n69
*350 REG_COEFF_B2_n68
*351 REG_COEFF_B2_n67
*352 REG_COEFF_B2_n66
*353 REG_COEFF_B2_n65
*354 REG_COEFF_B2_n63
*355 REG_COEFF_B2_n62
*356 REG_COEFF_B2_n61
*357 REG_COEFF_B2_n14
*358 REG_COEFF_B2_n13
*359 REG_COEFF_B2_n12
*360 REG_COEFF_B2_n11
*361 REG_COEFF_B2_n27
*362 REG_COEFF_B2_n26
*363 REG_COEFF_B2_n25
*364 REG_COEFF_B2_n24
*365 REG_COEFF_B2_n23
*366 REG_COEFF_B2_n22
*367 REG_COEFF_B2_n21
*368 REG_COEFF_B2_n20
*369 REG_COEFF_B2_n19
*370 REG_COEFF_B2_n18
*371 REG_COEFF_B2_n17
*372 REG_COEFF_B2_n16
*373 REG_COEFF_B2_n35
*374 REG_DATA_OUT_n56
*375 REG_DATA_OUT_n55
*376 REG_DATA_OUT_n54
*377 REG_DATA_OUT_n53
*378 REG_DATA_OUT_n52
*379 REG_DATA_OUT_n51
*380 REG_DATA_OUT_n50
*381 REG_DATA_OUT_n49
*382 REG_DATA_OUT_n48
*383 REG_DATA_OUT_n11
*384 REG_DATA_OUT_n10
*385 REG_DATA_OUT_n27
*386 REG_DATA_OUT_n26
*387 REG_DATA_OUT_n25
*388 REG_DATA_OUT_n24
*389 REG_DATA_OUT_n23
*390 REG_DATA_OUT_n22
*391 REG_DATA_OUT_n21
*392 REG_DATA_OUT_n20
*393 REG_DATA_OUT_n19
*394 REG_DATA_OUT_n18
*395 REG_DATA_OUT_n17
*396 REG_DATA_OUT_n16
*397 REG_DATA_OUT_n15
*398 REG_DATA_OUT_n14
*399 REG_DATA_OUT_n13
*400 REG_DATA_OUT_n12
*401 REG_VOUT_n3
*402 REG_VOUT_n5
*403 REG_Z1_n58
*404 REG_Z1_n57
*405 REG_Z1_n56
*406 REG_Z1_n55
*407 REG_Z1_n54
*408 REG_Z1_n53
*409 REG_Z1_n52
*410 REG_Z1_n51
*411 REG_Z1_n12
*412 REG_Z1_n11
*413 REG_Z1_n30
*414 REG_Z1_n29
*415 REG_Z1_n28
*416 REG_Z1_n27
*417 REG_Z1_n26
*418 REG_Z1_n25
*419 REG_Z1_n24
*420 REG_Z1_n23
*421 REG_Z1_n22
*422 REG_Z1_n21
*423 REG_Z1_n20
*424 REG_Z1_n19
*425 REG_Z1_n18
*426 REG_Z1_n17
*427 REG_Z1_n16
*428 REG_Z1_n15
*429 REG_Z1_n14
*430 REG_Z1_n13
*431 REG_Z2_n59
*432 REG_Z2_n58
*433 REG_Z2_n57
*434 REG_Z2_n56
*435 REG_Z2_n55
*436 REG_Z2_n54
*437 REG_Z2_n53
*438 REG_Z2_n12
*439 REG_Z2_n11
*440 REG_Z2_n30
*441 REG_Z2_n29
*442 REG_Z2_n28
*443 REG_Z2_n27
*444 REG_Z2_n26
*445 REG_Z2_n25
*446 REG_Z2_n24
*447 REG_Z2_n23
*448 REG_Z2_n22
*449 REG_Z2_n21
*450 REG_Z2_n20
*451 REG_Z2_n19
*452 REG_Z2_n18
*453 REG_Z2_n17
*454 REG_Z2_n16
*455 REG_Z2_n15
*456 REG_Z2_n14
*457 REG_Z2_n13
*458 add_1_root_add_98_2_n1
*459 mult_102_n925
*460 mult_102_n909
*461 mult_102_n908
*462 mult_102_n907
*463 mult_102_n906
*464 mult_102_n905
*465 mult_102_n904
*466 mult_102_n902
*467 mult_102_n901
*468 mult_102_n900
*469 mult_102_n899
*470 mult_102_n898
*471 mult_102_n897
*472 mult_102_n896
*473 mult_102_n895
*474 mult_102_n894
*475 mult_102_n893
*476 mult_102_n892
*477 mult_102_n891
*478 mult_102_n890
*479 mult_102_n889
*480 mult_102_n888
*481 mult_102_n887
*482 mult_102_n886
*483 mult_102_n885
*484 mult_102_n884
*485 mult_102_n883
*486 mult_102_n882
*487 mult_102_n881
*488 mult_102_n880
*489 mult_102_n879
*490 mult_102_n878
*491 mult_102_n877
*492 mult_102_n876
*493 mult_102_n875
*494 mult_102_n874
*495 mult_102_n873
*496 mult_102_n1092
*497 mult_102_n1091
*498 mult_102_n1090
*499 mult_102_n1089
*500 mult_102_n1088
*501 mult_102_n1087
*502 mult_102_n1086
*503 mult_102_n1085
*504 mult_102_n1084
*505 mult_102_n1083
*506 mult_102_n1082
*507 mult_102_n1081
*508 mult_102_n1080
*509 mult_102_n1079
*510 mult_102_n1078
*511 mult_102_n1077
*512 mult_102_n1076
*513 mult_102_n1075
*514 mult_102_n1074
*515 mult_102_n1073
*516 mult_102_n1072
*517 mult_102_n1071
*518 mult_102_n1070
*519 mult_102_n1069
*520 mult_102_n1068
*521 mult_102_n1067
*522 mult_102_n1066
*523 mult_102_n1065
*524 mult_102_n1064
*525 mult_102_n1063
*526 mult_102_n1062
*527 mult_102_n1061
*528 mult_102_n1060
*529 mult_102_n1059
*530 mult_102_n1058
*531 mult_102_n1057
*532 mult_102_n1056
*533 mult_102_n1055
*534 mult_102_n1054
*535 mult_102_n1053
*536 mult_102_n1052
*537 mult_102_n1051
*538 mult_102_n1050
*539 mult_102_n1049
*540 mult_102_n1048
*541 mult_102_n1047
*542 mult_102_n1046
*543 mult_102_n1045
*544 mult_102_n1044
*545 mult_102_n1043
*546 mult_102_n1042
*547 mult_102_n1041
*548 mult_102_n1040
*549 mult_102_n1039
*550 mult_102_n1038
*551 mult_102_n1037
*552 mult_102_n1036
*553 mult_102_n1035
*554 mult_102_n1034
*555 mult_102_n1033
*556 mult_102_n1032
*557 mult_102_n1031
*558 mult_102_n1030
*559 mult_102_n1029
*560 mult_102_n1028
*561 mult_102_n1027
*562 mult_102_n1026
*563 mult_102_n1025
*564 mult_102_n1024
*565 mult_102_n1023
*566 mult_102_n1022
*567 mult_102_n1021
*568 mult_102_n1020
*569 mult_102_n1019
*570 mult_102_n1018
*571 mult_102_n1017
*572 mult_102_n1016
*573 mult_102_n1015
*574 mult_102_n1014
*575 mult_102_n1013
*576 mult_102_n1012
*577 mult_102_n1011
*578 mult_102_n1010
*579 mult_102_n1009
*580 mult_102_n1008
*581 mult_102_n1007
*582 mult_102_n1006
*583 mult_102_n1005
*584 mult_102_n1004
*585 mult_102_n1003
*586 mult_102_n1002
*587 mult_102_n1001
*588 mult_102_n1000
*589 mult_102_n999
*590 mult_102_n998
*591 mult_102_n997
*592 mult_102_n996
*593 mult_102_n995
*594 mult_102_n994
*595 mult_102_n993
*596 mult_102_n992
*597 mult_102_n991
*598 mult_102_n990
*599 mult_102_n989
*600 mult_102_n988
*601 mult_102_n987
*602 mult_102_n986
*603 mult_102_n985
*604 mult_102_n984
*605 mult_102_n983
*606 mult_102_n982
*607 mult_102_n981
*608 mult_102_n980
*609 mult_102_n979
*610 mult_102_n978
*611 mult_102_n977
*612 mult_102_n976
*613 mult_102_n975
*614 mult_102_n974
*615 mult_102_n973
*616 mult_102_n972
*617 mult_102_n971
*618 mult_102_n970
*619 mult_102_n969
*620 mult_102_n968
*621 mult_102_n967
*622 mult_102_n966
*623 mult_102_n965
*624 mult_102_n964
*625 mult_102_n963
*626 mult_102_n962
*627 mult_102_n961
*628 mult_102_n960
*629 mult_102_n959
*630 mult_102_n958
*631 mult_102_n957
*632 mult_102_n956
*633 mult_102_n955
*634 mult_102_n954
*635 mult_102_n953
*636 mult_102_n952
*637 mult_102_n951
*638 mult_102_n950
*639 mult_102_n949
*640 mult_102_n948
*641 mult_102_n947
*642 mult_102_n946
*643 mult_102_n945
*644 mult_102_n944
*645 mult_102_n943
*646 mult_102_n942
*647 mult_102_n941
*648 mult_102_n940
*649 mult_102_n939
*650 mult_102_n938
*651 mult_102_n937
*652 mult_102_n936
*653 mult_102_n935
*654 mult_102_n934
*655 mult_102_n933
*656 mult_102_n932
*657 mult_102_n931
*658 mult_102_n930
*659 mult_102_n929
*660 mult_102_n928
*661 mult_102_n927
*662 mult_102_n926
*663 mult_102_n924
*664 mult_102_n923
*665 mult_102_n922
*666 mult_102_n921
*667 mult_102_n920
*668 mult_102_n919
*669 mult_102_n918
*670 mult_102_n917
*671 mult_102_n916
*672 mult_102_n915
*673 mult_102_n914
*674 mult_102_n913
*675 mult_102_n912
*676 mult_102_n911
*677 mult_102_n910
*678 add_1_root_add_90_2_n30
*679 add_1_root_add_90_2_n28
*680 add_1_root_add_90_2_n26
*681 add_1_root_add_90_2_n25
*682 add_1_root_add_90_2_n24
*683 add_1_root_add_90_2_n21
*684 add_1_root_add_90_2_n20
*685 add_1_root_add_90_2_n19
*686 add_1_root_add_90_2_n18
*687 add_1_root_add_90_2_n16
*688 add_1_root_add_90_2_n15
*689 add_1_root_add_90_2_n14
*690 add_1_root_add_90_2_n13
*691 add_1_root_add_90_2_n12
*692 add_1_root_add_90_2_n11
*693 add_1_root_add_90_2_n10
*694 add_1_root_add_90_2_n8
*695 add_1_root_add_90_2_n7
*696 add_1_root_add_90_2_n6
*697 add_1_root_add_90_2_n4
*698 add_1_root_add_90_2_n3
*699 add_1_root_add_100_2_n27
*700 add_1_root_add_100_2_n24
*701 add_1_root_add_100_2_n22
*702 add_1_root_add_100_2_n21
*703 add_1_root_add_100_2_n20
*704 add_1_root_add_100_2_n19
*705 add_1_root_add_100_2_n18
*706 add_1_root_add_100_2_n17
*707 add_1_root_add_100_2_n16
*708 add_1_root_add_100_2_n15
*709 add_1_root_add_100_2_n14
*710 add_1_root_add_100_2_n13
*711 add_1_root_add_100_2_n12
*712 add_1_root_add_100_2_n11
*713 add_1_root_add_100_2_n9
*714 add_1_root_add_100_2_n8
*715 add_1_root_add_100_2_n7
*716 add_1_root_add_100_2_n6
*717 add_1_root_add_100_2_n4
*718 add_1_root_add_100_2_n2
*719 mult_87_n677
*720 mult_87_n676
*721 mult_87_n675
*722 mult_87_n674
*723 mult_87_n673
*724 mult_87_n671
*725 mult_87_n670
*726 mult_87_n669
*727 mult_87_n668
*728 mult_87_n667
*729 mult_87_n666
*730 mult_87_n665
*731 mult_87_n664
*732 mult_87_n663
*733 mult_87_n662
*734 mult_87_n661
*735 mult_87_n660
*736 mult_87_n659
*737 mult_87_n658
*738 mult_87_n657
*739 mult_87_n656
*740 mult_87_n655
*741 mult_87_n654
*742 mult_87_n653
*743 mult_87_n652
*744 mult_87_n651
*745 mult_87_n650
*746 mult_87_n649
*747 mult_87_n648
*748 mult_87_n647
*749 mult_87_n646
*750 mult_87_n645
*751 mult_87_n862
*752 mult_87_n861
*753 mult_87_n860
*754 mult_87_n859
*755 mult_87_n858
*756 mult_87_n857
*757 mult_87_n856
*758 mult_87_n855
*759 mult_87_n854
*760 mult_87_n853
*761 mult_87_n852
*762 mult_87_n851
*763 mult_87_n850
*764 mult_87_n849
*765 mult_87_n848
*766 mult_87_n847
*767 mult_87_n846
*768 mult_87_n845
*769 mult_87_n844
*770 mult_87_n843
*771 mult_87_n842
*772 mult_87_n841
*773 mult_87_n840
*774 mult_87_n839
*775 mult_87_n838
*776 mult_87_n837
*777 mult_87_n836
*778 mult_87_n835
*779 mult_87_n834
*780 mult_87_n833
*781 mult_87_n832
*782 mult_87_n831
*783 mult_87_n830
*784 mult_87_n829
*785 mult_87_n828
*786 mult_87_n827
*787 mult_87_n826
*788 mult_87_n825
*789 mult_87_n824
*790 mult_87_n823
*791 mult_87_n822
*792 mult_87_n821
*793 mult_87_n820
*794 mult_87_n819
*795 mult_87_n818
*796 mult_87_n817
*797 mult_87_n816
*798 mult_87_n815
*799 mult_87_n814
*800 mult_87_n813
*801 mult_87_n812
*802 mult_87_n811
*803 mult_87_n810
*804 mult_87_n809
*805 mult_87_n808
*806 mult_87_n807
*807 mult_87_n806
*808 mult_87_n805
*809 mult_87_n804
*810 mult_87_n803
*811 mult_87_n802
*812 mult_87_n801
*813 mult_87_n800
*814 mult_87_n799
*815 mult_87_n798
*816 mult_87_n797
*817 mult_87_n796
*818 mult_87_n795
*819 mult_87_n794
*820 mult_87_n793
*821 mult_87_n792
*822 mult_87_n791
*823 mult_87_n790
*824 mult_87_n789
*825 mult_87_n788
*826 mult_87_n787
*827 mult_87_n786
*828 mult_87_n785
*829 mult_87_n784
*830 mult_87_n783
*831 mult_87_n782
*832 mult_87_n781
*833 mult_87_n780
*834 mult_87_n779
*835 mult_87_n778
*836 mult_87_n777
*837 mult_87_n776
*838 mult_87_n775
*839 mult_87_n774
*840 mult_87_n773
*841 mult_87_n772
*842 mult_87_n771
*843 mult_87_n770
*844 mult_87_n769
*845 mult_87_n768
*846 mult_87_n767
*847 mult_87_n766
*848 mult_87_n765
*849 mult_87_n764
*850 mult_87_n763
*851 mult_87_n762
*852 mult_87_n761
*853 mult_87_n760
*854 mult_87_n759
*855 mult_87_n758
*856 mult_87_n757
*857 mult_87_n756
*858 mult_87_n755
*859 mult_87_n754
*860 mult_87_n753
*861 mult_87_n752
*862 mult_87_n751
*863 mult_87_n750
*864 mult_87_n749
*865 mult_87_n748
*866 mult_87_n747
*867 mult_87_n746
*868 mult_87_n745
*869 mult_87_n744
*870 mult_87_n743
*871 mult_87_n742
*872 mult_87_n741
*873 mult_87_n740
*874 mult_87_n739
*875 mult_87_n738
*876 mult_87_n737
*877 mult_87_n736
*878 mult_87_n735
*879 mult_87_n734
*880 mult_87_n733
*881 mult_87_n732
*882 mult_87_n731
*883 mult_87_n730
*884 mult_87_n729
*885 mult_87_n728
*886 mult_87_n727
*887 mult_87_n726
*888 mult_87_n725
*889 mult_87_n724
*890 mult_87_n723
*891 mult_87_n722
*892 mult_87_n721
*893 mult_87_n720
*894 mult_87_n719
*895 mult_87_n718
*896 mult_87_n717
*897 mult_87_n716
*898 mult_87_n715
*899 mult_87_n714
*900 mult_87_n713
*901 mult_87_n712
*902 mult_87_n711
*903 mult_87_n710
*904 mult_87_n709
*905 mult_87_n708
*906 mult_87_n707
*907 mult_87_n706
*908 mult_87_n705
*909 mult_87_n704
*910 mult_87_n703
*911 mult_87_n702
*912 mult_87_n701
*913 mult_87_n700
*914 mult_87_n699
*915 mult_87_n698
*916 mult_87_n697
*917 mult_87_n696
*918 mult_87_n695
*919 mult_87_n694
*920 mult_87_n693
*921 mult_87_n692
*922 mult_87_n691
*923 mult_87_n690
*924 mult_87_n689
*925 mult_87_n688
*926 mult_87_n687
*927 mult_87_n686
*928 mult_87_n685
*929 mult_87_n684
*930 mult_87_n683
*931 mult_87_n682
*932 mult_87_n681
*933 mult_87_n680
*934 mult_87_n679
*935 mult_87_n678
*936 mult_95_n340
*937 mult_95_n339
*938 mult_95_n338
*939 mult_95_n337
*940 mult_95_n336
*941 mult_95_n335
*942 mult_95_n334
*943 mult_95_n332
*944 mult_95_n331
*945 mult_95_n330
*946 mult_95_n329
*947 mult_95_n328
*948 mult_95_n327
*949 mult_95_n326
*950 mult_95_n325
*951 mult_95_n324
*952 mult_95_n323
*953 mult_95_n286
*954 mult_95_n285
*955 mult_95_n284
*956 mult_95_n283
*957 mult_95_n282
*958 mult_95_n281
*959 mult_95_n280
*960 mult_95_n279
*961 mult_95_n278
*962 mult_95_n277
*963 mult_95_n276
*964 mult_95_n275
*965 mult_95_n274
*966 mult_95_n273
*967 mult_95_n272
*968 mult_95_n271
*969 mult_95_n270
*970 mult_95_n269
*971 mult_95_n268
*972 mult_95_n267
*973 mult_95_n266
*974 mult_95_n265
*975 mult_95_n264
*976 mult_95_n263
*977 mult_95_n262
*978 mult_95_n261
*979 mult_95_n260
*980 mult_95_n259
*981 mult_95_n258
*982 mult_95_n257
*983 mult_95_n256
*984 mult_95_n255
*985 mult_95_n254
*986 mult_95_n253
*987 mult_95_n252
*988 mult_95_n251
*989 mult_95_n250
*990 mult_95_n249
*991 mult_95_n248
*992 mult_95_n247
*993 mult_95_n246
*994 mult_95_n245
*995 mult_95_n244
*996 mult_95_n243
*997 mult_95_n242
*998 mult_95_n241
*999 mult_95_n240
*1000 mult_95_n239
*1001 mult_95_n238
*1002 mult_95_n237
*1003 mult_95_n236
*1004 mult_95_n235
*1005 mult_95_n234
*1006 mult_95_n233
*1007 mult_95_n232
*1008 mult_95_n231
*1009 mult_95_n230
*1010 mult_95_n229
*1011 mult_95_n228
*1012 mult_95_n227
*1013 mult_95_n226
*1014 mult_95_n225
*1015 mult_95_n224
*1016 mult_95_n223
*1017 mult_95_n106
*1018 mult_95_n105
*1019 mult_95_n104
*1020 mult_95_n103
*1021 mult_95_n102
*1022 mult_95_n101
*1023 mult_95_n98
*1024 mult_95_n97
*1025 mult_95_n96
*1026 mult_95_n95
*1027 mult_95_n94
*1028 mult_95_n93
*1029 mult_95_n90
*1030 mult_95_n89
*1031 mult_95_n88
*1032 mult_95_n87
*1033 mult_95_n86
*1034 mult_95_n85
*1035 mult_95_n84
*1036 mult_95_n83
*1037 mult_95_n81
*1038 mult_95_n80
*1039 mult_95_n79
*1040 mult_95_n77
*1041 mult_95_n76
*1042 mult_95_n75
*1043 mult_95_n71
*1044 mult_95_n70
*1045 mult_95_n59
*1046 mult_95_n58
*1047 mult_95_n57
*1048 mult_95_n56
*1049 mult_95_n55
*1050 mult_95_n54
*1051 mult_95_n53
*1052 mult_95_n52
*1053 mult_95_n51
*1054 mult_95_n50
*1055 mult_95_n49
*1056 mult_95_n48
*1057 mult_95_n47
*1058 mult_95_n46
*1059 mult_95_n45
*1060 mult_95_n44
*1061 mult_95_n43
*1062 mult_95_n42
*1063 mult_95_n41
*1064 mult_95_n40
*1065 mult_95_n39
*1066 mult_95_n38
*1067 mult_95_n37
*1068 mult_95_n36
*1069 mult_95_n35
*1070 mult_95_n34
*1071 mult_95_n33
*1072 mult_95_n32
*1073 mult_95_n31
*1074 mult_95_n30
*1075 mult_95_n28
*1076 mult_95_n27
*1077 mult_95_n26
*1078 mult_95_n25
*1079 mult_95_n24
*1080 mult_95_n23
*1081 mult_95_n22
*1082 mult_95_n21
*1083 mult_95_n20
*1084 mult_95_n19
*1085 mult_95_n17
*1086 mult_95_n16
*1087 mult_95_n7
*1088 mult_95_n6
*1089 mult_95_n5
*1090 mult_95_n4
*1091 mult_95_n3
*1092 mult_95_n2
*1093 mult_84_n925
*1094 mult_84_n924
*1095 mult_84_n923
*1096 mult_84_n922
*1097 mult_84_n921
*1098 mult_84_n920
*1099 mult_84_n919
*1100 mult_84_n918
*1101 mult_84_n915
*1102 mult_84_n914
*1103 mult_84_n913
*1104 mult_84_n912
*1105 mult_84_n911
*1106 mult_84_n910
*1107 mult_84_n909
*1108 mult_84_n908
*1109 mult_84_n907
*1110 mult_84_n906
*1111 mult_84_n905
*1112 mult_84_n904
*1113 mult_84_n903
*1114 mult_84_n902
*1115 mult_84_n901
*1116 mult_84_n900
*1117 mult_84_n899
*1118 mult_84_n898
*1119 mult_84_n897
*1120 mult_84_n896
*1121 mult_84_n895
*1122 mult_84_n894
*1123 mult_84_n893
*1124 mult_84_n892
*1125 mult_84_n891
*1126 mult_84_n890
*1127 mult_84_n889
*1128 mult_84_n888
*1129 mult_84_n887
*1130 mult_84_n886
*1131 mult_84_n885
*1132 mult_84_n1108
*1133 mult_84_n1107
*1134 mult_84_n1106
*1135 mult_84_n1105
*1136 mult_84_n1104
*1137 mult_84_n1103
*1138 mult_84_n1102
*1139 mult_84_n1101
*1140 mult_84_n1100
*1141 mult_84_n1099
*1142 mult_84_n1098
*1143 mult_84_n1097
*1144 mult_84_n1096
*1145 mult_84_n1095
*1146 mult_84_n1094
*1147 mult_84_n1093
*1148 mult_84_n1092
*1149 mult_84_n1091
*1150 mult_84_n1090
*1151 mult_84_n1089
*1152 mult_84_n1088
*1153 mult_84_n1087
*1154 mult_84_n1086
*1155 mult_84_n1085
*1156 mult_84_n1084
*1157 mult_84_n1083
*1158 mult_84_n1082
*1159 mult_84_n1081
*1160 mult_84_n1080
*1161 mult_84_n1079
*1162 mult_84_n1078
*1163 mult_84_n1077
*1164 mult_84_n1076
*1165 mult_84_n1075
*1166 mult_84_n1074
*1167 mult_84_n1073
*1168 mult_84_n1072
*1169 mult_84_n1071
*1170 mult_84_n1070
*1171 mult_84_n1069
*1172 mult_84_n1068
*1173 mult_84_n1067
*1174 mult_84_n1066
*1175 mult_84_n1065
*1176 mult_84_n1064
*1177 mult_84_n1063
*1178 mult_84_n1062
*1179 mult_84_n1061
*1180 mult_84_n1060
*1181 mult_84_n1059
*1182 mult_84_n1058
*1183 mult_84_n1057
*1184 mult_84_n1056
*1185 mult_84_n1055
*1186 mult_84_n1054
*1187 mult_84_n1053
*1188 mult_84_n1052
*1189 mult_84_n1051
*1190 mult_84_n1050
*1191 mult_84_n1049
*1192 mult_84_n1048
*1193 mult_84_n1047
*1194 mult_84_n1046
*1195 mult_84_n1045
*1196 mult_84_n1044
*1197 mult_84_n1043
*1198 mult_84_n1042
*1199 mult_84_n1041
*1200 mult_84_n1040
*1201 mult_84_n1039
*1202 mult_84_n1038
*1203 mult_84_n1037
*1204 mult_84_n1036
*1205 mult_84_n1035
*1206 mult_84_n1034
*1207 mult_84_n1033
*1208 mult_84_n1032
*1209 mult_84_n1031
*1210 mult_84_n1030
*1211 mult_84_n1029
*1212 mult_84_n1028
*1213 mult_84_n1027
*1214 mult_84_n1026
*1215 mult_84_n1025
*1216 mult_84_n1024
*1217 mult_84_n1023
*1218 mult_84_n1022
*1219 mult_84_n1021
*1220 mult_84_n1020
*1221 mult_84_n1019
*1222 mult_84_n1018
*1223 mult_84_n1017
*1224 mult_84_n1016
*1225 mult_84_n1015
*1226 mult_84_n1014
*1227 mult_84_n1013
*1228 mult_84_n1012
*1229 mult_84_n1011
*1230 mult_84_n1010
*1231 mult_84_n1009
*1232 mult_84_n1008
*1233 mult_84_n1007
*1234 mult_84_n1006
*1235 mult_84_n1005
*1236 mult_84_n1004
*1237 mult_84_n1003
*1238 mult_84_n1002
*1239 mult_84_n1001
*1240 mult_84_n1000
*1241 mult_84_n999
*1242 mult_84_n998
*1243 mult_84_n997
*1244 mult_84_n996
*1245 mult_84_n995
*1246 mult_84_n994
*1247 mult_84_n993
*1248 mult_84_n992
*1249 mult_84_n991
*1250 mult_84_n990
*1251 mult_84_n989
*1252 mult_84_n988
*1253 mult_84_n987
*1254 mult_84_n986
*1255 mult_84_n985
*1256 mult_84_n984
*1257 mult_84_n983
*1258 mult_84_n982
*1259 mult_84_n981
*1260 mult_84_n980
*1261 mult_84_n979
*1262 mult_84_n978
*1263 mult_84_n977
*1264 mult_84_n976
*1265 mult_84_n975
*1266 mult_84_n974
*1267 mult_84_n973
*1268 mult_84_n972
*1269 mult_84_n971
*1270 mult_84_n970
*1271 mult_84_n969
*1272 mult_84_n968
*1273 mult_84_n967
*1274 mult_84_n966
*1275 mult_84_n965
*1276 mult_84_n964
*1277 mult_84_n963
*1278 mult_84_n962
*1279 mult_84_n961
*1280 mult_84_n960
*1281 mult_84_n959
*1282 mult_84_n958
*1283 mult_84_n957
*1284 mult_84_n956
*1285 mult_84_n955
*1286 mult_84_n954
*1287 mult_84_n953
*1288 mult_84_n952
*1289 mult_84_n951
*1290 mult_84_n950
*1291 mult_84_n949
*1292 mult_84_n948
*1293 mult_84_n947
*1294 mult_84_n946
*1295 mult_84_n945
*1296 mult_84_n944
*1297 mult_84_n943
*1298 mult_84_n942
*1299 mult_84_n941
*1300 mult_84_n940
*1301 mult_84_n939
*1302 mult_84_n938
*1303 mult_84_n937
*1304 mult_84_n936
*1305 mult_84_n935
*1306 mult_84_n934
*1307 mult_84_n933
*1308 mult_84_n932
*1309 mult_84_n931
*1310 mult_84_n930
*1311 mult_84_n929
*1312 mult_84_n928
*1313 mult_84_n927
*1314 mult_84_n926
*1315 mult_92_n340
*1316 mult_92_n339
*1317 mult_92_n338
*1318 mult_92_n337
*1319 mult_92_n336
*1320 mult_92_n335
*1321 mult_92_n334
*1322 mult_92_n331
*1323 mult_92_n330
*1324 mult_92_n329
*1325 mult_92_n328
*1326 mult_92_n327
*1327 mult_92_n326
*1328 mult_92_n325
*1329 mult_92_n324
*1330 mult_92_n323
*1331 mult_92_n286
*1332 mult_92_n285
*1333 mult_92_n284
*1334 mult_92_n283
*1335 mult_92_n282
*1336 mult_92_n281
*1337 mult_92_n280
*1338 mult_92_n279
*1339 mult_92_n278
*1340 mult_92_n277
*1341 mult_92_n276
*1342 mult_92_n275
*1343 mult_92_n274
*1344 mult_92_n273
*1345 mult_92_n272
*1346 mult_92_n271
*1347 mult_92_n270
*1348 mult_92_n269
*1349 mult_92_n268
*1350 mult_92_n267
*1351 mult_92_n266
*1352 mult_92_n265
*1353 mult_92_n264
*1354 mult_92_n263
*1355 mult_92_n262
*1356 mult_92_n261
*1357 mult_92_n260
*1358 mult_92_n259
*1359 mult_92_n258
*1360 mult_92_n257
*1361 mult_92_n256
*1362 mult_92_n255
*1363 mult_92_n254
*1364 mult_92_n253
*1365 mult_92_n252
*1366 mult_92_n251
*1367 mult_92_n250
*1368 mult_92_n249
*1369 mult_92_n248
*1370 mult_92_n247
*1371 mult_92_n246
*1372 mult_92_n245
*1373 mult_92_n244
*1374 mult_92_n243
*1375 mult_92_n242
*1376 mult_92_n241
*1377 mult_92_n240
*1378 mult_92_n239
*1379 mult_92_n238
*1380 mult_92_n237
*1381 mult_92_n236
*1382 mult_92_n235
*1383 mult_92_n234
*1384 mult_92_n233
*1385 mult_92_n232
*1386 mult_92_n231
*1387 mult_92_n230
*1388 mult_92_n229
*1389 mult_92_n228
*1390 mult_92_n227
*1391 mult_92_n226
*1392 mult_92_n225
*1393 mult_92_n224
*1394 mult_92_n223
*1395 mult_92_n106
*1396 mult_92_n105
*1397 mult_92_n104
*1398 mult_92_n103
*1399 mult_92_n102
*1400 mult_92_n101
*1401 mult_92_n98
*1402 mult_92_n97
*1403 mult_92_n96
*1404 mult_92_n95
*1405 mult_92_n94
*1406 mult_92_n93
*1407 mult_92_n90
*1408 mult_92_n89
*1409 mult_92_n88
*1410 mult_92_n87
*1411 mult_92_n86
*1412 mult_92_n85
*1413 mult_92_n84
*1414 mult_92_n83
*1415 mult_92_n81
*1416 mult_92_n80
*1417 mult_92_n79
*1418 mult_92_n77
*1419 mult_92_n76
*1420 mult_92_n75
*1421 mult_92_n71
*1422 mult_92_n70
*1423 mult_92_n59
*1424 mult_92_n58
*1425 mult_92_n57
*1426 mult_92_n56
*1427 mult_92_n55
*1428 mult_92_n54
*1429 mult_92_n53
*1430 mult_92_n52
*1431 mult_92_n51
*1432 mult_92_n50
*1433 mult_92_n49
*1434 mult_92_n48
*1435 mult_92_n47
*1436 mult_92_n46
*1437 mult_92_n45
*1438 mult_92_n44
*1439 mult_92_n43
*1440 mult_92_n42
*1441 mult_92_n41
*1442 mult_92_n40
*1443 mult_92_n39
*1444 mult_92_n38
*1445 mult_92_n37
*1446 mult_92_n36
*1447 mult_92_n35
*1448 mult_92_n34
*1449 mult_92_n33
*1450 mult_92_n32
*1451 mult_92_n31
*1452 mult_92_n30
*1453 mult_92_n28
*1454 mult_92_n27
*1455 mult_92_n26
*1456 mult_92_n25
*1457 mult_92_n24
*1458 mult_92_n23
*1459 mult_92_n22
*1460 mult_92_n21
*1461 mult_92_n20
*1462 mult_92_n19
*1463 mult_92_n17
*1464 mult_92_n16
*1465 mult_92_n7
*1466 mult_92_n6
*1467 mult_92_n5
*1468 mult_92_n4
*1469 mult_92_n3
*1470 mult_92_n2
*1471 OUT_REG[7]
*1472 OUT_REG[6]
*1473 OUT_REG[5]
*1474 OUT_REG[4]
*1475 OUT_REG[3]
*1476 OUT_REG[2]
*1477 OUT_REG[1]
*1478 OUT_REG[0]
*1479 Z1_OUT[8]
*1480 Z1_OUT[7]
*1481 Z1_OUT[6]
*1482 Z1_OUT[5]
*1483 Z1_OUT[4]
*1484 Z1_OUT[3]
*1485 Z1_OUT[2]
*1486 Z1_OUT[1]
*1487 Z1_OUT[0]
*1488 B1_COEFF[7]
*1489 B1_COEFF[6]
*1490 B1_COEFF[5]
*1491 B1_COEFF[4]
*1492 B1_COEFF[3]
*1493 B1_COEFF[2]
*1494 B1_COEFF[1]
*1495 Z2_OUT[8]
*1496 Z2_OUT[7]
*1497 Z2_OUT[6]
*1498 Z2_OUT[5]
*1499 Z2_OUT[4]
*1500 Z2_OUT[3]
*1501 Z2_OUT[2]
*1502 Z2_OUT[1]
*1503 Z2_OUT[0]
*1504 B2_COEFF[7]
*1505 B2_COEFF[6]
*1506 B2_COEFF[5]
*1507 B2_COEFF[4]
*1508 B2_COEFF[3]
*1509 B2_COEFF[2]
*1510 B2_COEFF[1]
*1511 A1_COEFF[7]
*1512 A1_COEFF[6]
*1513 A1_COEFF[5]
*1514 A1_COEFF[4]
*1515 A1_COEFF[3]
*1516 A1_COEFF[2]
*1517 A1_COEFF[1]
*1518 A1_COEFF[0]
*1519 A2_COEFF[7]
*1520 A2_COEFF[6]
*1521 A2_COEFF[5]
*1522 A2_COEFF[4]
*1523 A2_COEFF[3]
*1524 A2_COEFF[2]
*1525 A2_COEFF[1]
*1526 A2_COEFF[0]
*1527 INPUT_SAMPLE[7]
*1528 INPUT_SAMPLE[6]
*1529 INPUT_SAMPLE[5]
*1530 INPUT_SAMPLE[4]
*1531 INPUT_SAMPLE[3]
*1532 INPUT_SAMPLE[2]
*1533 INPUT_SAMPLE[1]
*1534 INPUT_SAMPLE[0]
*1535 T1[8]
*1536 T1[7]
*1537 T1[6]
*1538 T1[5]
*1539 T1[4]
*1540 T1[3]
*1541 T1[2]
*1542 T1[1]
*1543 T1[0]
*1544 A0_COEFF[7]
*1545 A0_COEFF[6]
*1546 A0_COEFF[5]
*1547 A0_COEFF[4]
*1548 A0_COEFF[3]
*1549 A0_COEFF[2]
*1550 A0_COEFF[1]
*1551 A0_COEFF[0]
*1552 M5[13]
*1553 M5[12]
*1554 M5[11]
*1555 M5[10]
*1556 M5[9]
*1557 M5[8]
*1558 M5[7]
*1559 FF[7]
*1560 FF[6]
*1561 FF[5]
*1562 FF[4]
*1563 FF[3]
*1564 FF[2]
*1565 FF[1]
*1566 FF[0]
*1567 DIN_DELAY[7]
*1568 DIN_DELAY[6]
*1569 DIN_DELAY[5]
*1570 DIN_DELAY[4]
*1571 DIN_DELAY[3]
*1572 DIN_DELAY[2]
*1573 DIN_DELAY[1]
*1574 DIN_DELAY[0]
*1575 add_1_root_add_98_2_carry[7]
*1576 add_1_root_add_98_2_carry[6]
*1577 add_1_root_add_98_2_carry[5]
*1578 add_1_root_add_98_2_carry[4]
*1579 add_1_root_add_98_2_carry[3]
*1580 add_1_root_add_98_2_carry[2]
*1581 add_1_root_add_90_2_carry[7]
*1582 add_1_root_add_90_2_carry[6]
*1583 add_1_root_add_90_2_carry[5]
*1584 add_1_root_add_90_2_carry[4]
*1585 add_1_root_add_90_2_carry[3]
*1586 add_1_root_add_90_2_carry[2]
*1587 add_1_root_add_100_2_carry[8]
*1588 add_1_root_add_100_2_carry[7]
*1589 add_1_root_add_100_2_carry[6]
*1590 add_1_root_add_100_2_carry[5]
*1591 add_1_root_add_100_2_carry[4]
*1592 add_1_root_add_100_2_carry[3]
*1593 FE_RC_16_0
*1594 FE_RC_15_0
*1595 FE_RC_14_0
*1596 FE_RC_13_0
*1597 FE_OFC6_mult_102_n956
*1598 FE_OFC5_mult_92_n236
*1599 FE_OFC4_mult_95_n236
*1600 FE_OFC3_N15
*1601 FE_OFC2_mult_102_n969
*1602 FE_OFC1_mult_87_n724
*1603 FE_OFC0_mult_87_n744