*SPEF "IEEE 1481-1998"
*DESIGN "IIR_LH"
*DATE "Fri Nov 12 21:32:20 2021"
*VENDOR "Cadence Design Systems, Inc."
*PROGRAM "Innovus"
*VERSION "17.11-s080_1"
*DESIGN_FLOW "COUPLING C" "PIN_CAP NONE" "NAME_SCOPE LOCAL"
*DIVIDER /
*DELIMITER :
*BUS_DELIMITER []
*T_UNIT 1 NS
*C_UNIT 1 PF
*R_UNIT 1 OHM
*L_UNIT 1 HENRY

// MMMC spef file for corner 'my_rc'

*NAME_MAP

*1 CLK
*2 RST_n
*3 VIN
*4 VOUT
*5 a0[7]
*6 a0[6]
*7 a0[5]
*8 a0[4]
*9 a0[3]
*10 a0[2]
*11 a0[1]
*12 a0[0]
*13 a1[7]
*14 a1[6]
*15 a1[5]
*16 a1[4]
*17 a1[3]
*18 a1[2]
*19 a1[1]
*20 a1[0]
*21 a2[7]
*22 a2[6]
*23 a2[5]
*24 a2[4]
*25 a2[3]
*26 a2[2]
*27 a2[1]
*28 a2[0]
*29 b1[7]
*30 b1[6]
*31 b1[5]
*32 b1[4]
*33 b1[3]
*34 b1[2]
*35 b1[1]
*36 b1[0]
*37 b2[7]
*38 b2[6]
*39 b2[5]
*40 b2[4]
*41 b2[3]
*42 b2[2]
*43 b2[1]
*44 b2[0]
*45 DIN[7]
*46 DIN[6]
*47 DIN[5]
*48 DIN[4]
*49 DIN[3]
*50 DIN[2]
*51 DIN[1]
*52 DIN[0]
*53 DOUT[7]
*54 DOUT[6]
*55 DOUT[5]
*56 DOUT[4]
*57 DOUT[3]
*58 DOUT[2]
*59 DOUT[1]
*60 DOUT[0]
*61 FE_RN_4_0
*62 FE_RN_3_0
*63 FE_RN_2_0
*64 FE_RN_1_0
*65 FE_RN_0_0
*66 FE_OFN16_mult_101_n841
*67 FE_OFN15_mult_107_n714
*68 FE_OFN14_mult_130_n884
*69 FE_OFN13_CLK
*70 FE_OFN12_CLK
*71 FE_OFN11_mult_124_n250
*72 FE_OFN10_mult_136_n874
*73 FE_OFN9_mult_130_n837
*74 FE_OFN8_TT6_9
*75 FE_OFN7_mult_133_n718
*76 FE_OFN6_HH5_0
*77 FE_OFN5_TT1_1
*78 FE_OFN4_TT1_9
*79 FE_OFN3_B1_COEFF_1
*80 FE_OFN2_B1_COEFF_7
*81 FE_OFN1_B1_COEFF_3
*82 FE_OFN0_B1_COEFF_5
*83 FE_DBTN20_RST_n
*84 FE_DBTN19_EN
*85 FE_DBTN18_VIN_S
*86 FE_DBTN17_OUTPUT
*87 FE_DBTN16_N9
*88 FE_DBTN15_N1
*89 FE_DBTN14_N0
*90 FE_DBTN13_TT1_1
*91 FE_DBTN12_TT1_0
*92 FE_DBTN11_TT1_3
*93 FE_DBTN10_TT1_5
*94 FE_DBTN9_TT1_7
*95 FE_DBTN8_H0_0
*96 FE_DBTN7_B1_COEFF_0
*97 FE_DBTN6_B1_COEFF_7
*98 FE_DBTN5_TT6_1
*99 FE_DBTN4_TT6_3
*100 FE_DBTN3_TT6_5
*101 FE_DBTN2_TT6_7
*102 FE_DBTN1_B1_COEFF_3
*103 FE_DBTN0_B1_COEFF_1
*104 EN
*105 VIN_S
*106 V_OUT
*107 OUTPUT_DELAY
*108 VOUT_S
*109 OUTPUT
*110 VOUT_U
*111 VOUT_T
*112 n3
*113 n4
*114 N44
*115 N43
*116 N42
*117 N41
*118 N40
*119 N39
*120 N38
*121 N37
*122 N36
*123 N33
*124 N32
*125 N31
*126 N30
*127 N29
*128 N28
*129 N27
*130 N25
*131 N24
*132 N23
*133 N22
*134 N21
*135 N20
*136 N19
*137 N18
*138 N9
*139 N16
*140 N15
*141 N14
*142 N13
*143 N12
*144 N11
*145 N10
*146 N7
*147 N6
*148 N5
*149 N4
*150 N3
*151 N2
*152 N1
*153 N0
*154 n323
*155 n324
*156 TS1_8_
*157 TS1_7_
*158 TS1_6_
*159 TS1_5_
*160 TS1_4_
*161 TS1_3_
*162 TS1_2_
*163 TS1_1_
*164 TS1_0_
*165 HH5_7_
*166 HH5_6_
*167 HH5_5_
*168 HH5_4_
*169 HH5_3_
*170 HH5_2_
*171 HH5_1_
*172 HH5_0_
*173 HH4_i_9_
*174 HH4_i_8_
*175 HH4_i_7_
*176 HH4_i_14_
*177 HH4_i_13_
*178 HH4_i_12_
*179 HH4_i_11_
*180 HH4_i_10_
*181 HH4_7_
*182 HH4_6_
*183 HH4_5_
*184 HH4_4_
*185 HH4_3_
*186 HH4_2_
*187 HH4_1_
*188 HH4_0_
*189 HH2_i_9_
*190 HH2_i_8_
*191 HH2_i_7_
*192 HH2_i_14_
*193 HH2_i_13_
*194 HH2_i_12_
*195 HH2_i_11_
*196 HH2_i_10_
*197 HH2_7_
*198 HH2_6_
*199 HH2_5_
*200 HH2_4_
*201 HH2_3_
*202 HH2_2_
*203 HH2_1_
*204 HH2_0_
*205 HH1_i_9_
*206 HH1_i_8_
*207 HH1_i_7_
*208 HH1_i_14_
*209 HH1_i_13_
*210 HH1_i_12_
*211 HH1_i_11_
*212 HH1_i_10_
*213 HH1_7_
*214 HH1_6_
*215 HH1_5_
*216 HH1_4_
*217 HH1_3_
*218 HH1_2_
*219 HH1_1_
*220 HH1_0_
*221 n389
*222 n390
*223 n391
*224 n392
*225 n393
*226 n394
*227 n395
*228 n396
*229 n397
*230 n398
*231 n399
*232 n400
*233 n401
*234 n402
*235 n403
*236 n404
*237 n405
*238 n406
*239 n407
*240 n408
*241 n409
*242 n410
*243 n411
*244 n412
*245 n413
*246 n414
*247 n415
*248 n416
*249 n417
*250 n418
*251 n420
*252 n421
*253 n422
*254 n430
*255 n431
*256 n432
*257 n433
*258 n434
*259 n435
*260 n436
*261 n437
*262 n438
*263 n439
*264 n440
*265 n441
*266 n442
*267 REG_IN_DELAY_n56
*268 REG_IN_DELAY_n55
*269 REG_IN_DELAY_n54
*270 REG_IN_DELAY_n11
*271 REG_IN_DELAY_n27
*272 REG_IN_DELAY_n26
*273 REG_IN_DELAY_n25
*274 REG_IN_DELAY_n24
*275 REG_IN_DELAY_n23
*276 REG_IN_DELAY_n22
*277 REG_IN_DELAY_n21
*278 REG_IN_DELAY_n20
*279 REG_IN_DELAY_n19
*280 REG_IN_DELAY_n18
*281 REG_IN_DELAY_n17
*282 REG_IN_DELAY_n16
*283 REG_IN_DELAY_n15
*284 REG_IN_DELAY_n14
*285 REG_IN_DELAY_n13
*286 REG_IN_DELAY_n12
*287 REG_DATA_IN_n56
*288 REG_DATA_IN_n55
*289 REG_DATA_IN_n54
*290 REG_DATA_IN_n53
*291 REG_DATA_IN_n52
*292 REG_DATA_IN_n51
*293 REG_DATA_IN_n50
*294 REG_DATA_IN_n49
*295 REG_DATA_IN_n11
*296 REG_DATA_IN_n10
*297 REG_DATA_IN_n27
*298 REG_DATA_IN_n26
*299 REG_DATA_IN_n25
*300 REG_DATA_IN_n24
*301 REG_DATA_IN_n23
*302 REG_DATA_IN_n22
*303 REG_DATA_IN_n21
*304 REG_DATA_IN_n20
*305 REG_DATA_IN_n19
*306 REG_DATA_IN_n18
*307 REG_DATA_IN_n17
*308 REG_DATA_IN_n16
*309 REG_DATA_IN_n15
*310 REG_DATA_IN_n14
*311 REG_DATA_IN_n13
*312 REG_DATA_IN_n12
*313 REG_VIN_n3
*314 REG_VIN_n4
*315 REG_COEFF_A0_n56
*316 REG_COEFF_A0_n55
*317 REG_COEFF_A0_n54
*318 REG_COEFF_A0_n53
*319 REG_COEFF_A0_n52
*320 REG_COEFF_A0_n51
*321 REG_COEFF_A0_n50
*322 REG_COEFF_A0_n49
*323 REG_COEFF_A0_n11
*324 REG_COEFF_A0_n10
*325 REG_COEFF_A0_n27
*326 REG_COEFF_A0_n26
*327 REG_COEFF_A0_n25
*328 REG_COEFF_A0_n24
*329 REG_COEFF_A0_n23
*330 REG_COEFF_A0_n22
*331 REG_COEFF_A0_n21
*332 REG_COEFF_A0_n20
*333 REG_COEFF_A0_n19
*334 REG_COEFF_A0_n18
*335 REG_COEFF_A0_n17
*336 REG_COEFF_A0_n16
*337 REG_COEFF_A0_n15
*338 REG_COEFF_A0_n14
*339 REG_COEFF_A0_n13
*340 REG_COEFF_A0_n12
*341 REG_COEFF_A1_n56
*342 REG_COEFF_A1_n55
*343 REG_COEFF_A1_n54
*344 REG_COEFF_A1_n53
*345 REG_COEFF_A1_n52
*346 REG_COEFF_A1_n51
*347 REG_COEFF_A1_n50
*348 REG_COEFF_A1_n49
*349 REG_COEFF_A1_n11
*350 REG_COEFF_A1_n10
*351 REG_COEFF_A1_n27
*352 REG_COEFF_A1_n26
*353 REG_COEFF_A1_n25
*354 REG_COEFF_A1_n24
*355 REG_COEFF_A1_n23
*356 REG_COEFF_A1_n22
*357 REG_COEFF_A1_n21
*358 REG_COEFF_A1_n20
*359 REG_COEFF_A1_n19
*360 REG_COEFF_A1_n18
*361 REG_COEFF_A1_n17
*362 REG_COEFF_A1_n16
*363 REG_COEFF_A1_n15
*364 REG_COEFF_A1_n14
*365 REG_COEFF_A1_n13
*366 REG_COEFF_A1_n12
*367 REG_COEFF_A2_n56
*368 REG_COEFF_A2_n55
*369 REG_COEFF_A2_n54
*370 REG_COEFF_A2_n53
*371 REG_COEFF_A2_n52
*372 REG_COEFF_A2_n51
*373 REG_COEFF_A2_n50
*374 REG_COEFF_A2_n49
*375 REG_COEFF_A2_n11
*376 REG_COEFF_A2_n10
*377 REG_COEFF_A2_n27
*378 REG_COEFF_A2_n26
*379 REG_COEFF_A2_n25
*380 REG_COEFF_A2_n24
*381 REG_COEFF_A2_n23
*382 REG_COEFF_A2_n22
*383 REG_COEFF_A2_n21
*384 REG_COEFF_A2_n20
*385 REG_COEFF_A2_n19
*386 REG_COEFF_A2_n18
*387 REG_COEFF_A2_n17
*388 REG_COEFF_A2_n16
*389 REG_COEFF_A2_n15
*390 REG_COEFF_A2_n14
*391 REG_COEFF_A2_n13
*392 REG_COEFF_A2_n12
*393 REG_COEFF_B1_n80
*394 REG_COEFF_B1_n79
*395 REG_COEFF_B1_n78
*396 REG_COEFF_B1_n77
*397 REG_COEFF_B1_n76
*398 REG_COEFF_B1_n75
*399 REG_COEFF_B1_n74
*400 REG_COEFF_B1_n73
*401 REG_COEFF_B1_n14
*402 REG_COEFF_B1_n12
*403 REG_COEFF_B1_n61
*404 REG_COEFF_B1_n27
*405 REG_COEFF_B1_n19
*406 REG_COEFF_B1_n18
*407 REG_COEFF_B1_n43
*408 REG_COEFF_B1_n40
*409 REG_COEFF_B1_n26
*410 REG_COEFF_B1_n25
*411 REG_COEFF_B1_n24
*412 REG_COEFF_B1_n23
*413 REG_COEFF_B1_n22
*414 REG_COEFF_B1_n21
*415 REG_COEFF_B1_n15
*416 REG_COEFF_B1_n13
*417 REG_COEFF_B1_n10
*418 REG_COEFF_B1_n4
*419 REG_COEFF_B2_n56
*420 REG_COEFF_B2_n55
*421 REG_COEFF_B2_n54
*422 REG_COEFF_B2_n53
*423 REG_COEFF_B2_n52
*424 REG_COEFF_B2_n51
*425 REG_COEFF_B2_n50
*426 REG_COEFF_B2_n49
*427 REG_COEFF_B2_n11
*428 REG_COEFF_B2_n10
*429 REG_COEFF_B2_n27
*430 REG_COEFF_B2_n26
*431 REG_COEFF_B2_n25
*432 REG_COEFF_B2_n24
*433 REG_COEFF_B2_n23
*434 REG_COEFF_B2_n22
*435 REG_COEFF_B2_n21
*436 REG_COEFF_B2_n20
*437 REG_COEFF_B2_n19
*438 REG_COEFF_B2_n18
*439 REG_COEFF_B2_n17
*440 REG_COEFF_B2_n16
*441 REG_COEFF_B2_n15
*442 REG_COEFF_B2_n14
*443 REG_COEFF_B2_n13
*444 REG_COEFF_B2_n12
*445 REG_Z1_n70
*446 REG_Z1_n69
*447 REG_Z1_n68
*448 REG_Z1_n67
*449 REG_Z1_n66
*450 REG_Z1_n65
*451 REG_Z1_n64
*452 REG_Z1_n63
*453 REG_Z1_n62
*454 REG_Z1_n61
*455 REG_Z1_n13
*456 REG_Z1_n12
*457 REG_Z1_n33
*458 REG_Z1_n32
*459 REG_Z1_n31
*460 REG_Z1_n30
*461 REG_Z1_n29
*462 REG_Z1_n28
*463 REG_Z1_n27
*464 REG_Z1_n26
*465 REG_Z1_n25
*466 REG_Z1_n24
*467 REG_Z1_n23
*468 REG_Z1_n22
*469 REG_Z1_n21
*470 REG_Z1_n20
*471 REG_Z1_n19
*472 REG_Z1_n18
*473 REG_Z1_n17
*474 REG_Z1_n16
*475 REG_Z1_n15
*476 REG_Z1_n14
*477 REG_Z2_n56
*478 REG_Z2_n55
*479 REG_Z2_n54
*480 REG_Z2_n53
*481 REG_Z2_n52
*482 REG_Z2_n51
*483 REG_Z2_n50
*484 REG_Z2_n49
*485 REG_Z2_n11
*486 REG_Z2_n10
*487 REG_Z2_n27
*488 REG_Z2_n26
*489 REG_Z2_n25
*490 REG_Z2_n24
*491 REG_Z2_n23
*492 REG_Z2_n22
*493 REG_Z2_n21
*494 REG_Z2_n20
*495 REG_Z2_n19
*496 REG_Z2_n18
*497 REG_Z2_n17
*498 REG_Z2_n16
*499 REG_Z2_n15
*500 REG_Z2_n14
*501 REG_Z2_n13
*502 REG_Z2_n12
*503 REG_Z3_n60
*504 REG_Z3_n59
*505 REG_Z3_n58
*506 REG_Z3_n57
*507 REG_Z3_n56
*508 REG_Z3_n55
*509 REG_Z3_n54
*510 REG_Z3_n53
*511 REG_Z3_n11
*512 REG_Z3_n10
*513 REG_Z3_n27
*514 REG_Z3_n26
*515 REG_Z3_n25
*516 REG_Z3_n24
*517 REG_Z3_n23
*518 REG_Z3_n22
*519 REG_Z3_n21
*520 REG_Z3_n20
*521 REG_Z3_n19
*522 REG_Z3_n18
*523 REG_Z3_n17
*524 REG_Z3_n16
*525 REG_Z3_n15
*526 REG_Z3_n14
*527 REG_Z3_n13
*528 REG_Z3_n12
*529 REG_Z4_n60
*530 REG_Z4_n59
*531 REG_Z4_n58
*532 REG_Z4_n57
*533 REG_Z4_n56
*534 REG_Z4_n55
*535 REG_Z4_n54
*536 REG_Z4_n53
*537 REG_Z4_n11
*538 REG_Z4_n10
*539 REG_Z4_n27
*540 REG_Z4_n26
*541 REG_Z4_n25
*542 REG_Z4_n24
*543 REG_Z4_n23
*544 REG_Z4_n22
*545 REG_Z4_n21
*546 REG_Z4_n20
*547 REG_Z4_n19
*548 REG_Z4_n18
*549 REG_Z4_n17
*550 REG_Z4_n16
*551 REG_Z4_n15
*552 REG_Z4_n14
*553 REG_Z4_n13
*554 REG_Z4_n12
*555 REG_Z5_n58
*556 REG_Z5_n57
*557 REG_Z5_n56
*558 REG_Z5_n55
*559 REG_Z5_n54
*560 REG_Z5_n53
*561 REG_Z5_n52
*562 REG_Z5_n51
*563 REG_Z5_n11
*564 REG_Z5_n10
*565 REG_Z5_n27
*566 REG_Z5_n26
*567 REG_Z5_n25
*568 REG_Z5_n24
*569 REG_Z5_n23
*570 REG_Z5_n22
*571 REG_Z5_n21
*572 REG_Z5_n20
*573 REG_Z5_n19
*574 REG_Z5_n18
*575 REG_Z5_n17
*576 REG_Z5_n16
*577 REG_Z5_n15
*578 REG_Z5_n14
*579 REG_Z5_n13
*580 REG_Z5_n12
*581 REG_Z6_n66
*582 REG_Z6_n64
*583 REG_Z6_n62
*584 REG_Z6_n60
*585 REG_Z6_n58
*586 REG_Z6_n13
*587 REG_Z6_n12
*588 REG_Z6_n33
*589 REG_Z6_n32
*590 REG_Z6_n31
*591 REG_Z6_n30
*592 REG_Z6_n29
*593 REG_Z6_n28
*594 REG_Z6_n27
*595 REG_Z6_n26
*596 REG_Z6_n25
*597 REG_Z6_n24
*598 REG_Z6_n23
*599 REG_Z6_n22
*600 REG_Z6_n21
*601 REG_Z6_n20
*602 REG_Z6_n19
*603 REG_Z6_n18
*604 REG_Z6_n17
*605 REG_Z6_n16
*606 REG_Z6_n15
*607 REG_Z6_n14
*608 REG_Z7_n56
*609 REG_Z7_n55
*610 REG_Z7_n54
*611 REG_Z7_n53
*612 REG_Z7_n52
*613 REG_Z7_n51
*614 REG_Z7_n50
*615 REG_Z7_n49
*616 REG_Z7_n11
*617 REG_Z7_n10
*618 REG_Z7_n27
*619 REG_Z7_n26
*620 REG_Z7_n25
*621 REG_Z7_n24
*622 REG_Z7_n23
*623 REG_Z7_n22
*624 REG_Z7_n21
*625 REG_Z7_n20
*626 REG_Z7_n19
*627 REG_Z7_n18
*628 REG_Z7_n17
*629 REG_Z7_n16
*630 REG_Z7_n15
*631 REG_Z7_n14
*632 REG_Z7_n13
*633 REG_Z7_n12
*634 REG_Z8_n60
*635 REG_Z8_n59
*636 REG_Z8_n58
*637 REG_Z8_n57
*638 REG_Z8_n56
*639 REG_Z8_n55
*640 REG_Z8_n54
*641 REG_Z8_n53
*642 REG_Z8_n11
*643 REG_Z8_n10
*644 REG_Z8_n27
*645 REG_Z8_n26
*646 REG_Z8_n25
*647 REG_Z8_n24
*648 REG_Z8_n23
*649 REG_Z8_n22
*650 REG_Z8_n21
*651 REG_Z8_n20
*652 REG_Z8_n19
*653 REG_Z8_n18
*654 REG_Z8_n17
*655 REG_Z8_n16
*656 REG_Z8_n15
*657 REG_Z8_n14
*658 REG_Z8_n13
*659 REG_Z8_n12
*660 REG_Z9_n64
*661 REG_Z9_n63
*662 REG_Z9_n62
*663 REG_Z9_n61
*664 REG_Z9_n60
*665 REG_Z9_n59
*666 REG_Z9_n58
*667 REG_Z9_n57
*668 REG_Z9_n56
*669 REG_Z9_n12
*670 REG_Z9_n11
*671 REG_Z9_n30
*672 REG_Z9_n29
*673 REG_Z9_n28
*674 REG_Z9_n27
*675 REG_Z9_n26
*676 REG_Z9_n25
*677 REG_Z9_n24
*678 REG_Z9_n23
*679 REG_Z9_n22
*680 REG_Z9_n21
*681 REG_Z9_n20
*682 REG_Z9_n19
*683 REG_Z9_n18
*684 REG_Z9_n17
*685 REG_Z9_n16
*686 REG_Z9_n15
*687 REG_Z9_n14
*688 REG_Z9_n13
*689 REG_Z10_n70
*690 REG_Z10_n69
*691 REG_Z10_n68
*692 REG_Z10_n67
*693 REG_Z10_n66
*694 REG_Z10_n65
*695 REG_Z10_n64
*696 REG_Z10_n63
*697 REG_Z10_n62
*698 REG_Z10_n61
*699 REG_Z10_n13
*700 REG_Z10_n12
*701 REG_Z10_n33
*702 REG_Z10_n32
*703 REG_Z10_n31
*704 REG_Z10_n30
*705 REG_Z10_n29
*706 REG_Z10_n28
*707 REG_Z10_n27
*708 REG_Z10_n26
*709 REG_Z10_n25
*710 REG_Z10_n24
*711 REG_Z10_n23
*712 REG_Z10_n22
*713 REG_Z10_n21
*714 REG_Z10_n20
*715 REG_Z10_n19
*716 REG_Z10_n18
*717 REG_Z10_n17
*718 REG_Z10_n16
*719 REG_Z10_n15
*720 REG_Z10_n14
*721 REG_Z10_DATA_OUT_8_
*722 REG_Z10_DATA_OUT_9_
*723 REG_DATA_OUT_n56
*724 REG_DATA_OUT_n55
*725 REG_DATA_OUT_n54
*726 REG_DATA_OUT_n53
*727 REG_DATA_OUT_n52
*728 REG_DATA_OUT_n51
*729 REG_DATA_OUT_n50
*730 REG_DATA_OUT_n49
*731 REG_DATA_OUT_n48
*732 REG_DATA_OUT_n11
*733 REG_DATA_OUT_n10
*734 REG_DATA_OUT_n27
*735 REG_DATA_OUT_n26
*736 REG_DATA_OUT_n25
*737 REG_DATA_OUT_n24
*738 REG_DATA_OUT_n23
*739 REG_DATA_OUT_n22
*740 REG_DATA_OUT_n21
*741 REG_DATA_OUT_n20
*742 REG_DATA_OUT_n19
*743 REG_DATA_OUT_n18
*744 REG_DATA_OUT_n17
*745 REG_DATA_OUT_n16
*746 REG_DATA_OUT_n15
*747 REG_DATA_OUT_n14
*748 REG_DATA_OUT_n13
*749 REG_DATA_OUT_n12
*750 REG_VOUT_1_n3
*751 REG_VOUT_1_n4
*752 REG_VOUT_2_n4
*753 REG_VOUT_2_n2
*754 REG_VOUT_3_n4
*755 REG_VOUT_3_n2
*756 REG_OUTPUT_DELAY_n10
*757 REG_OUTPUT_DELAY_n2
*758 add_1_root_add_146_2_n1
*759 add_1_root_add_144_2_n1
*760 add_0_root_add_0_root_sub_142_n1
*761 sub_0_root_add_0_root_sub_122_n37
*762 sub_0_root_add_0_root_sub_122_n36
*763 sub_0_root_add_0_root_sub_122_n35
*764 sub_0_root_add_0_root_sub_122_n34
*765 sub_0_root_add_0_root_sub_122_n33
*766 sub_0_root_add_0_root_sub_122_n32
*767 sub_0_root_add_0_root_sub_122_n31
*768 sub_0_root_add_0_root_sub_122_n30
*769 sub_0_root_add_0_root_sub_122_n29
*770 mult_124_n383
*771 mult_124_n382
*772 mult_124_n381
*773 mult_124_n380
*774 mult_124_n379
*775 mult_124_n377
*776 mult_124_n376
*777 mult_124_n375
*778 mult_124_n374
*779 mult_124_n373
*780 mult_124_n372
*781 mult_124_n371
*782 mult_124_n370
*783 mult_124_n369
*784 mult_124_n368
*785 mult_124_n367
*786 mult_124_n366
*787 mult_124_n365
*788 mult_124_n364
*789 mult_124_n363
*790 mult_124_n362
*791 mult_124_n361
*792 mult_124_n360
*793 mult_124_n359
*794 mult_124_n358
*795 mult_124_n297
*796 mult_124_n296
*797 mult_124_n295
*798 mult_124_n294
*799 mult_124_n293
*800 mult_124_n292
*801 mult_124_n291
*802 mult_124_n252
*803 mult_124_n251
*804 mult_124_n250
*805 mult_124_n249
*806 mult_124_n248
*807 mult_124_n247
*808 mult_124_n246
*809 mult_124_n245
*810 mult_124_n244
*811 mult_124_n243
*812 mult_124_n242
*813 mult_124_n231
*814 mult_124_n230
*815 mult_124_n229
*816 mult_124_n228
*817 mult_124_n227
*818 mult_124_n226
*819 mult_124_n225
*820 mult_124_n224
*821 mult_124_n223
*822 mult_124_n222
*823 mult_124_n221
*824 mult_124_n220
*825 mult_124_n219
*826 mult_124_n218
*827 mult_124_n217
*828 mult_124_n216
*829 mult_124_n215
*830 mult_124_n214
*831 mult_124_n213
*832 mult_124_n212
*833 mult_124_n211
*834 mult_124_n210
*835 mult_124_n209
*836 mult_124_n208
*837 mult_124_n207
*838 mult_124_n206
*839 mult_124_n205
*840 mult_124_n204
*841 mult_124_n203
*842 mult_124_n202
*843 mult_124_n201
*844 mult_124_n200
*845 mult_124_n199
*846 mult_124_n198
*847 mult_124_n197
*848 mult_124_n196
*849 mult_124_n195
*850 mult_124_n194
*851 mult_124_n193
*852 mult_124_n192
*853 mult_124_n191
*854 mult_124_n190
*855 mult_124_n189
*856 mult_124_n188
*857 mult_124_n187
*858 mult_124_n186
*859 mult_124_n185
*860 mult_124_n184
*861 mult_124_n183
*862 mult_124_n182
*863 mult_124_n181
*864 mult_124_n180
*865 mult_124_n178
*866 mult_124_n177
*867 mult_124_n176
*868 mult_124_n175
*869 mult_124_n174
*870 mult_124_n173
*871 mult_124_n172
*872 mult_124_n171
*873 mult_124_n170
*874 mult_124_n169
*875 mult_124_n167
*876 mult_124_n166
*877 mult_124_n165
*878 mult_124_n164
*879 mult_124_n163
*880 mult_124_n162
*881 mult_124_n161
*882 mult_124_n160
*883 mult_124_n159
*884 mult_124_n158
*885 mult_124_n156
*886 mult_124_n155
*887 mult_124_n154
*888 mult_124_n153
*889 mult_124_n152
*890 mult_124_n151
*891 mult_124_n150
*892 mult_124_n149
*893 mult_124_n148
*894 mult_124_n147
*895 mult_124_n146
*896 mult_124_n144
*897 mult_124_n141
*898 mult_124_n138
*899 mult_124_n135
*900 mult_124_n134
*901 mult_124_n133
*902 mult_124_n132
*903 mult_124_n131
*904 mult_124_n130
*905 mult_124_n129
*906 mult_124_n128
*907 mult_124_n127
*908 mult_124_n126
*909 mult_124_n125
*910 mult_124_n124
*911 mult_124_n123
*912 mult_124_n122
*913 mult_124_n121
*914 mult_124_n120
*915 mult_124_n119
*916 mult_124_n118
*917 mult_124_n117
*918 mult_124_n116
*919 mult_124_n115
*920 mult_124_n114
*921 mult_124_n113
*922 mult_124_n112
*923 mult_124_n111
*924 mult_124_n110
*925 mult_124_n109
*926 mult_124_n108
*927 mult_124_n107
*928 mult_124_n106
*929 mult_124_n105
*930 mult_124_n104
*931 mult_124_n103
*932 mult_124_n102
*933 mult_124_n101
*934 mult_124_n100
*935 mult_124_n98
*936 mult_124_n97
*937 mult_124_n96
*938 mult_124_n95
*939 mult_124_n94
*940 mult_124_n93
*941 mult_124_n92
*942 mult_124_n91
*943 mult_124_n90
*944 mult_124_n88
*945 mult_124_n87
*946 mult_124_n86
*947 mult_124_n85
*948 mult_124_n84
*949 mult_124_n69
*950 mult_124_n68
*951 mult_124_n67
*952 mult_124_n66
*953 mult_124_n64
*954 mult_124_n63
*955 mult_124_n62
*956 mult_124_n57
*957 mult_124_n56
*958 mult_124_n55
*959 mult_124_n54
*960 mult_124_n52
*961 mult_124_n51
*962 mult_124_n50
*963 mult_124_n49
*964 mult_124_n48
*965 mult_124_n47
*966 mult_124_n46
*967 mult_124_n45
*968 mult_124_n43
*969 mult_124_n42
*970 mult_124_n39
*971 mult_124_n38
*972 mult_124_n37
*973 mult_124_n32
*974 mult_124_n31
*975 mult_124_n30
*976 mult_124_n29
*977 mult_124_n26
*978 mult_124_n25
*979 mult_124_n24
*980 mult_124_n23
*981 mult_124_n22
*982 mult_124_n21
*983 mult_124_n20
*984 mult_124_n19
*985 mult_124_n18
*986 mult_124_n17
*987 mult_124_n16
*988 mult_124_n15
*989 mult_124_n11
*990 mult_124_n10
*991 mult_124_n8
*992 mult_124_n7
*993 mult_124_n6
*994 mult_124_n5
*995 mult_124_n4
*996 mult_124_n3
*997 mult_124_n2
*998 mult_124_n1
*999 mult_107_n819
*1000 mult_107_n637
*1001 mult_107_n635
*1002 mult_107_n634
*1003 mult_107_n633
*1004 mult_107_n632
*1005 mult_107_n631
*1006 mult_107_n630
*1007 mult_107_n629
*1008 mult_107_n628
*1009 mult_107_n627
*1010 mult_107_n626
*1011 mult_107_n625
*1012 mult_107_n624
*1013 mult_107_n623
*1014 mult_107_n622
*1015 mult_107_n621
*1016 mult_107_n620
*1017 mult_107_n619
*1018 mult_107_n618
*1019 mult_107_n617
*1020 mult_107_n616
*1021 mult_107_n615
*1022 mult_107_n614
*1023 mult_107_n613
*1024 mult_107_n612
*1025 mult_107_n611
*1026 mult_107_n610
*1027 mult_107_n609
*1028 mult_107_n608
*1029 mult_107_n607
*1030 mult_107_n606
*1031 mult_107_n605
*1032 mult_107_n604
*1033 mult_107_n603
*1034 mult_107_n602
*1035 mult_107_n601
*1036 mult_107_n600
*1037 mult_107_n599
*1038 mult_107_n598
*1039 mult_107_n597
*1040 mult_107_n596
*1041 mult_107_n595
*1042 mult_107_n594
*1043 mult_107_n593
*1044 mult_107_n588
*1045 mult_107_n816
*1046 mult_107_n815
*1047 mult_107_n814
*1048 mult_107_n813
*1049 mult_107_n812
*1050 mult_107_n811
*1051 mult_107_n810
*1052 mult_107_n809
*1053 mult_107_n808
*1054 mult_107_n807
*1055 mult_107_n806
*1056 mult_107_n805
*1057 mult_107_n804
*1058 mult_107_n803
*1059 mult_107_n802
*1060 mult_107_n801
*1061 mult_107_n800
*1062 mult_107_n799
*1063 mult_107_n798
*1064 mult_107_n797
*1065 mult_107_n796
*1066 mult_107_n795
*1067 mult_107_n794
*1068 mult_107_n793
*1069 mult_107_n792
*1070 mult_107_n791
*1071 mult_107_n790
*1072 mult_107_n789
*1073 mult_107_n788
*1074 mult_107_n787
*1075 mult_107_n786
*1076 mult_107_n785
*1077 mult_107_n784
*1078 mult_107_n783
*1079 mult_107_n782
*1080 mult_107_n781
*1081 mult_107_n780
*1082 mult_107_n779
*1083 mult_107_n778
*1084 mult_107_n777
*1085 mult_107_n776
*1086 mult_107_n775
*1087 mult_107_n774
*1088 mult_107_n773
*1089 mult_107_n772
*1090 mult_107_n771
*1091 mult_107_n770
*1092 mult_107_n769
*1093 mult_107_n768
*1094 mult_107_n767
*1095 mult_107_n766
*1096 mult_107_n765
*1097 mult_107_n764
*1098 mult_107_n763
*1099 mult_107_n762
*1100 mult_107_n761
*1101 mult_107_n760
*1102 mult_107_n759
*1103 mult_107_n758
*1104 mult_107_n757
*1105 mult_107_n756
*1106 mult_107_n755
*1107 mult_107_n754
*1108 mult_107_n753
*1109 mult_107_n752
*1110 mult_107_n751
*1111 mult_107_n750
*1112 mult_107_n749
*1113 mult_107_n748
*1114 mult_107_n747
*1115 mult_107_n746
*1116 mult_107_n745
*1117 mult_107_n744
*1118 mult_107_n743
*1119 mult_107_n742
*1120 mult_107_n741
*1121 mult_107_n740
*1122 mult_107_n739
*1123 mult_107_n738
*1124 mult_107_n737
*1125 mult_107_n736
*1126 mult_107_n735
*1127 mult_107_n734
*1128 mult_107_n733
*1129 mult_107_n732
*1130 mult_107_n731
*1131 mult_107_n730
*1132 mult_107_n729
*1133 mult_107_n728
*1134 mult_107_n727
*1135 mult_107_n726
*1136 mult_107_n725
*1137 mult_107_n724
*1138 mult_107_n723
*1139 mult_107_n722
*1140 mult_107_n721
*1141 mult_107_n720
*1142 mult_107_n719
*1143 mult_107_n718
*1144 mult_107_n717
*1145 mult_107_n716
*1146 mult_107_n715
*1147 mult_107_n714
*1148 mult_107_n713
*1149 mult_107_n712
*1150 mult_107_n711
*1151 mult_107_n710
*1152 mult_107_n709
*1153 mult_107_n708
*1154 mult_107_n707
*1155 mult_107_n706
*1156 mult_107_n705
*1157 mult_107_n704
*1158 mult_107_n703
*1159 mult_107_n702
*1160 mult_107_n701
*1161 mult_107_n700
*1162 mult_107_n699
*1163 mult_107_n698
*1164 mult_107_n697
*1165 mult_107_n696
*1166 mult_107_n695
*1167 mult_107_n694
*1168 mult_107_n693
*1169 mult_107_n692
*1170 mult_107_n691
*1171 mult_107_n690
*1172 mult_107_n689
*1173 mult_107_n688
*1174 mult_107_n687
*1175 mult_107_n686
*1176 mult_107_n685
*1177 mult_107_n684
*1178 mult_107_n683
*1179 mult_107_n682
*1180 mult_107_n681
*1181 mult_107_n680
*1182 mult_107_n679
*1183 mult_107_n678
*1184 mult_107_n677
*1185 mult_107_n676
*1186 mult_107_n675
*1187 mult_107_n674
*1188 mult_107_n673
*1189 mult_107_n672
*1190 mult_107_n671
*1191 mult_107_n670
*1192 mult_107_n669
*1193 mult_107_n668
*1194 mult_107_n667
*1195 mult_107_n666
*1196 mult_107_n665
*1197 mult_107_n664
*1198 mult_107_n663
*1199 mult_107_n662
*1200 mult_107_n661
*1201 mult_107_n660
*1202 mult_107_n659
*1203 mult_107_n658
*1204 mult_107_n657
*1205 mult_107_n656
*1206 mult_107_n655
*1207 mult_107_n654
*1208 mult_107_n653
*1209 mult_107_n652
*1210 mult_107_n651
*1211 mult_107_n650
*1212 mult_107_n649
*1213 mult_107_n648
*1214 mult_107_n647
*1215 mult_107_n646
*1216 mult_107_n645
*1217 mult_107_n644
*1218 mult_107_n643
*1219 mult_107_n642
*1220 mult_107_n641
*1221 mult_107_n640
*1222 mult_107_n639
*1223 mult_107_n638
*1224 mult_107_n636
*1225 mult_139_n977
*1226 mult_139_n749
*1227 mult_139_n748
*1228 mult_139_n747
*1229 mult_139_n746
*1230 mult_139_n745
*1231 mult_139_n743
*1232 mult_139_n742
*1233 mult_139_n740
*1234 mult_139_n739
*1235 mult_139_n738
*1236 mult_139_n737
*1237 mult_139_n736
*1238 mult_139_n734
*1239 mult_139_n733
*1240 mult_139_n732
*1241 mult_139_n731
*1242 mult_139_n730
*1243 mult_139_n729
*1244 mult_139_n728
*1245 mult_139_n726
*1246 mult_139_n725
*1247 mult_139_n724
*1248 mult_139_n723
*1249 mult_139_n722
*1250 mult_139_n721
*1251 mult_139_n720
*1252 mult_139_n719
*1253 mult_139_n718
*1254 mult_139_n717
*1255 mult_139_n716
*1256 mult_139_n715
*1257 mult_139_n714
*1258 mult_139_n713
*1259 mult_139_n712
*1260 mult_139_n711
*1261 mult_139_n710
*1262 mult_139_n709
*1263 mult_139_n708
*1264 mult_139_n707
*1265 mult_139_n706
*1266 mult_139_n705
*1267 mult_139_n704
*1268 mult_139_n703
*1269 mult_139_n702
*1270 mult_139_n701
*1271 mult_139_n700
*1272 mult_139_n699
*1273 mult_139_n976
*1274 mult_139_n975
*1275 mult_139_n974
*1276 mult_139_n973
*1277 mult_139_n972
*1278 mult_139_n971
*1279 mult_139_n970
*1280 mult_139_n969
*1281 mult_139_n968
*1282 mult_139_n967
*1283 mult_139_n966
*1284 mult_139_n965
*1285 mult_139_n964
*1286 mult_139_n963
*1287 mult_139_n962
*1288 mult_139_n961
*1289 mult_139_n960
*1290 mult_139_n959
*1291 mult_139_n958
*1292 mult_139_n957
*1293 mult_139_n956
*1294 mult_139_n955
*1295 mult_139_n954
*1296 mult_139_n953
*1297 mult_139_n952
*1298 mult_139_n951
*1299 mult_139_n950
*1300 mult_139_n949
*1301 mult_139_n948
*1302 mult_139_n947
*1303 mult_139_n946
*1304 mult_139_n945
*1305 mult_139_n944
*1306 mult_139_n943
*1307 mult_139_n942
*1308 mult_139_n941
*1309 mult_139_n940
*1310 mult_139_n939
*1311 mult_139_n938
*1312 mult_139_n937
*1313 mult_139_n936
*1314 mult_139_n935
*1315 mult_139_n934
*1316 mult_139_n933
*1317 mult_139_n932
*1318 mult_139_n931
*1319 mult_139_n930
*1320 mult_139_n929
*1321 mult_139_n928
*1322 mult_139_n927
*1323 mult_139_n926
*1324 mult_139_n925
*1325 mult_139_n924
*1326 mult_139_n923
*1327 mult_139_n922
*1328 mult_139_n921
*1329 mult_139_n920
*1330 mult_139_n919
*1331 mult_139_n918
*1332 mult_139_n917
*1333 mult_139_n916
*1334 mult_139_n915
*1335 mult_139_n914
*1336 mult_139_n913
*1337 mult_139_n912
*1338 mult_139_n911
*1339 mult_139_n910
*1340 mult_139_n909
*1341 mult_139_n908
*1342 mult_139_n907
*1343 mult_139_n906
*1344 mult_139_n905
*1345 mult_139_n904
*1346 mult_139_n903
*1347 mult_139_n902
*1348 mult_139_n901
*1349 mult_139_n900
*1350 mult_139_n899
*1351 mult_139_n898
*1352 mult_139_n897
*1353 mult_139_n896
*1354 mult_139_n895
*1355 mult_139_n894
*1356 mult_139_n893
*1357 mult_139_n892
*1358 mult_139_n891
*1359 mult_139_n890
*1360 mult_139_n889
*1361 mult_139_n888
*1362 mult_139_n887
*1363 mult_139_n886
*1364 mult_139_n885
*1365 mult_139_n884
*1366 mult_139_n883
*1367 mult_139_n882
*1368 mult_139_n881
*1369 mult_139_n880
*1370 mult_139_n879
*1371 mult_139_n878
*1372 mult_139_n877
*1373 mult_139_n876
*1374 mult_139_n875
*1375 mult_139_n874
*1376 mult_139_n873
*1377 mult_139_n872
*1378 mult_139_n871
*1379 mult_139_n870
*1380 mult_139_n869
*1381 mult_139_n868
*1382 mult_139_n867
*1383 mult_139_n866
*1384 mult_139_n865
*1385 mult_139_n864
*1386 mult_139_n863
*1387 mult_139_n862
*1388 mult_139_n861
*1389 mult_139_n860
*1390 mult_139_n859
*1391 mult_139_n858
*1392 mult_139_n857
*1393 mult_139_n856
*1394 mult_139_n855
*1395 mult_139_n854
*1396 mult_139_n853
*1397 mult_139_n852
*1398 mult_139_n851
*1399 mult_139_n850
*1400 mult_139_n849
*1401 mult_139_n848
*1402 mult_139_n847
*1403 mult_139_n846
*1404 mult_139_n845
*1405 mult_139_n844
*1406 mult_139_n843
*1407 mult_139_n842
*1408 mult_139_n841
*1409 mult_139_n840
*1410 mult_139_n839
*1411 mult_139_n838
*1412 mult_139_n837
*1413 mult_139_n836
*1414 mult_139_n835
*1415 mult_139_n834
*1416 mult_139_n833
*1417 mult_139_n832
*1418 mult_139_n831
*1419 mult_139_n830
*1420 mult_139_n829
*1421 mult_139_n828
*1422 mult_139_n827
*1423 mult_139_n826
*1424 mult_139_n825
*1425 mult_139_n824
*1426 mult_139_n823
*1427 mult_139_n822
*1428 mult_139_n821
*1429 mult_139_n820
*1430 mult_139_n819
*1431 mult_139_n818
*1432 mult_139_n817
*1433 mult_139_n816
*1434 mult_139_n815
*1435 mult_139_n814
*1436 mult_139_n813
*1437 mult_139_n812
*1438 mult_139_n811
*1439 mult_139_n810
*1440 mult_139_n809
*1441 mult_139_n808
*1442 mult_139_n807
*1443 mult_139_n806
*1444 mult_139_n805
*1445 mult_139_n804
*1446 mult_139_n803
*1447 mult_139_n802
*1448 mult_139_n801
*1449 mult_139_n800
*1450 mult_139_n799
*1451 mult_139_n798
*1452 mult_139_n797
*1453 mult_139_n796
*1454 mult_139_n795
*1455 mult_139_n794
*1456 mult_139_n793
*1457 mult_139_n792
*1458 mult_139_n791
*1459 mult_139_n790
*1460 mult_139_n789
*1461 mult_139_n788
*1462 mult_139_n787
*1463 mult_139_n786
*1464 mult_139_n785
*1465 mult_139_n784
*1466 mult_139_n783
*1467 mult_139_n782
*1468 mult_139_n781
*1469 mult_139_n780
*1470 mult_139_n779
*1471 mult_139_n778
*1472 mult_139_n777
*1473 mult_139_n776
*1474 mult_139_n775
*1475 mult_139_n774
*1476 mult_139_n773
*1477 mult_139_n772
*1478 mult_139_n771
*1479 mult_139_n770
*1480 mult_139_n769
*1481 mult_139_n768
*1482 mult_139_n767
*1483 mult_139_n766
*1484 mult_139_n765
*1485 mult_139_n764
*1486 mult_139_n763
*1487 mult_139_n762
*1488 mult_139_n761
*1489 mult_139_n760
*1490 mult_139_n759
*1491 mult_139_n758
*1492 mult_139_n757
*1493 mult_139_n756
*1494 mult_139_n755
*1495 mult_139_n754
*1496 mult_139_n753
*1497 mult_139_n752
*1498 mult_139_n751
*1499 mult_139_n750
*1500 mult_136_n948
*1501 mult_136_n724
*1502 mult_136_n722
*1503 mult_136_n721
*1504 mult_136_n720
*1505 mult_136_n718
*1506 mult_136_n717
*1507 mult_136_n716
*1508 mult_136_n715
*1509 mult_136_n714
*1510 mult_136_n712
*1511 mult_136_n711
*1512 mult_136_n710
*1513 mult_136_n709
*1514 mult_136_n708
*1515 mult_136_n707
*1516 mult_136_n706
*1517 mult_136_n705
*1518 mult_136_n704
*1519 mult_136_n703
*1520 mult_136_n701
*1521 mult_136_n700
*1522 mult_136_n699
*1523 mult_136_n698
*1524 mult_136_n697
*1525 mult_136_n696
*1526 mult_136_n695
*1527 mult_136_n694
*1528 mult_136_n693
*1529 mult_136_n692
*1530 mult_136_n691
*1531 mult_136_n690
*1532 mult_136_n689
*1533 mult_136_n688
*1534 mult_136_n687
*1535 mult_136_n686
*1536 mult_136_n685
*1537 mult_136_n684
*1538 mult_136_n683
*1539 mult_136_n682
*1540 mult_136_n681
*1541 mult_136_n680
*1542 mult_136_n679
*1543 mult_136_n678
*1544 mult_136_n677
*1545 mult_136_n676
*1546 mult_136_n675
*1547 mult_136_n674
*1548 mult_136_n673
*1549 mult_136_n672
*1550 mult_136_n671
*1551 mult_136_n947
*1552 mult_136_n946
*1553 mult_136_n945
*1554 mult_136_n944
*1555 mult_136_n943
*1556 mult_136_n942
*1557 mult_136_n941
*1558 mult_136_n940
*1559 mult_136_n939
*1560 mult_136_n938
*1561 mult_136_n937
*1562 mult_136_n936
*1563 mult_136_n935
*1564 mult_136_n934
*1565 mult_136_n933
*1566 mult_136_n932
*1567 mult_136_n931
*1568 mult_136_n930
*1569 mult_136_n929
*1570 mult_136_n928
*1571 mult_136_n927
*1572 mult_136_n926
*1573 mult_136_n925
*1574 mult_136_n924
*1575 mult_136_n923
*1576 mult_136_n922
*1577 mult_136_n921
*1578 mult_136_n920
*1579 mult_136_n919
*1580 mult_136_n918
*1581 mult_136_n917
*1582 mult_136_n916
*1583 mult_136_n915
*1584 mult_136_n914
*1585 mult_136_n913
*1586 mult_136_n912
*1587 mult_136_n911
*1588 mult_136_n910
*1589 mult_136_n909
*1590 mult_136_n908
*1591 mult_136_n907
*1592 mult_136_n906
*1593 mult_136_n905
*1594 mult_136_n904
*1595 mult_136_n903
*1596 mult_136_n902
*1597 mult_136_n901
*1598 mult_136_n900
*1599 mult_136_n899
*1600 mult_136_n898
*1601 mult_136_n897
*1602 mult_136_n896
*1603 mult_136_n895
*1604 mult_136_n894
*1605 mult_136_n893
*1606 mult_136_n892
*1607 mult_136_n891
*1608 mult_136_n890
*1609 mult_136_n889
*1610 mult_136_n888
*1611 mult_136_n887
*1612 mult_136_n886
*1613 mult_136_n885
*1614 mult_136_n884
*1615 mult_136_n883
*1616 mult_136_n882
*1617 mult_136_n881
*1618 mult_136_n880
*1619 mult_136_n879
*1620 mult_136_n878
*1621 mult_136_n877
*1622 mult_136_n876
*1623 mult_136_n875